REMARK  4 active torsions:
REMARK  status: ('A' for Active; 'I' for Inactive)
REMARK    1  A    between atoms: C4_4  and  C11_11 
REMARK    2  A    between atoms: C11_11  and  C20_20 
REMARK    3  A    between atoms: C24_24  and  C25_25 
REMARK    4  A    between atoms: C25_25  and  C26_26 
ROOT
HETATM    1  O1          0       2.779  -9.585  -0.560  1.00  0.00    -0.223 OA
HETATM    2  C2          0       9.481  -4.313   0.455  1.00  0.00    -0.002 C 
HETATM    3  C3          0       9.733  -5.762   0.220  1.00  0.00     0.042 C 
HETATM    4  C4          0      10.966  -3.848   0.242  1.00  0.00     0.023 C 
HETATM    5  C5          0       8.490  -6.591   0.305  1.00  0.00    -0.032 C 
HETATM    6  C6          0       7.192  -5.959  -0.017  1.00  0.00    -0.028 C 
HETATM    7  C7          0       5.920  -6.731   0.160  1.00  0.00     0.034 C 
HETATM    8  C8          0      10.846  -6.129   1.219  1.00  0.00    -0.002 C 
HETATM    9  C9          0       8.418  -3.839  -0.568  1.00  0.00     0.025 C 
HETATM   10  C10         0      11.663  -4.787   1.299  1.00  0.00    -0.005 C 
HETATM   11  C12         0       7.145  -4.674  -0.412  1.00  0.00    -0.030 C 
HETATM   12  C13         0       6.137  -8.208   0.427  1.00  0.00    -0.038 C 
HETATM   13  C14         0       8.556  -7.873   0.649  1.00  0.00    -0.006 C 
HETATM   14  C15         0       9.001  -4.015   1.917  1.00  0.00    -0.000 C 
HETATM   15  C16         0       7.350  -8.704   0.684  1.00  0.00    -0.009 C 
HETATM   16  C17         0       4.924  -6.502  -0.994  1.00  0.00     0.010 C 
HETATM   17  C18         0       5.202  -6.127   1.397  1.00  0.00     0.008 C 
HETATM   18  C19         0       4.944  -9.131   0.453  1.00  0.00     0.055 C 
HETATM   19  C22         0       3.617  -7.293  -0.730  1.00  0.00     0.034 C 
HETATM   20  C23         0       3.962  -8.798  -0.705  1.00  0.00     0.156 C 
ENDROOT
BRANCH   4  21
HETATM   21  C11         0      11.340  -2.293   0.438  1.00  0.00     0.016 C 
HETATM   22  C21         0      10.594  -1.324  -0.509  1.00  0.00     0.004 C 
BRANCH  21  23
HETATM   23  C20         0      12.829  -1.960   0.253  1.00  0.00    -0.032 C 
HETATM   24  C24         0      13.748  -2.836  -0.156  1.00  0.00    -0.031 C 
BRANCH  24  25
HETATM   25  C25         0      15.185  -2.423  -0.311  1.00  0.00     0.022 C 
HETATM   26  C27         0      15.274  -0.931  -0.697  1.00  0.00     0.005 C 
BRANCH  25  27
HETATM   27  C26         0      15.881  -3.319  -1.357  1.00  0.00     0.004 C 
HETATM   28  C28         0      15.791  -4.792  -0.915  1.00  0.00     0.000 C 
HETATM   29  C29         0      17.363  -2.915  -1.486  1.00  0.00     0.000 C 
ENDBRANCH  25  27
ENDBRANCH  24  25
ENDBRANCH  21  23
ENDBRANCH   4  21
TORSDOF 4
