REMARK  6 active torsions:
REMARK  status: ('A' for Active; 'I' for Inactive)
REMARK    1  A    between atoms: O1_1  and  C14_14 
REMARK    2  A    between atoms: O1_1  and  C10_10 
REMARK    3  A    between atoms: O3_3  and  C12_12 
REMARK    4  A    between atoms: O7_7  and  C29_29 
REMARK    5  A    between atoms: N9_9  and  C11_11 
REMARK    6  A    between atoms: C30_30  and  C35_35 
ROOT
HETATM    1  O1          0       2.358   0.540  -0.123  1.00  0.00    -0.352 OA
ENDROOT
BRANCH   1   2
HETATM    2  C14         0       3.575  -0.170   0.166  1.00  0.00     0.291 C 
HETATM    3  O2          0       3.876  -0.014   1.555  1.00  0.00    -0.354 OA
HETATM    4  C17         0       5.071  -0.707   1.914  1.00  0.00     0.122 C 
HETATM    5  C23         0       5.321  -0.517   3.412  1.00  0.00     0.040 C 
HETATM    6  C15         0       6.270  -0.146   1.139  1.00  0.00     0.070 C 
HETATM    7  C11         0       6.037  -0.337  -0.389  1.00  0.00     0.257 C 
HETATM    8  C12         0       4.693   0.420  -0.704  1.00  0.00     0.206 C 
BRANCH   7   9
HETATM    9  N9          0       7.251   0.203  -1.193  1.00  0.00     0.087 N 
HETATM   10  C26         0       8.498  -0.534  -0.863  1.00  0.00     0.310 C 
HETATM   11  C25         0       7.103   0.036  -2.655  1.00  0.00     0.310 C 
ENDBRANCH   7   9
BRANCH   8  12
HETATM   12  O3          0       4.288   0.270  -2.066  1.00  0.00    -0.388 OA
HETATM   13  H60         0       3.437   0.751  -2.214  1.00  0.00     0.210 HD
ENDBRANCH   8  12
ENDBRANCH   1   2
BRANCH   1  14
HETATM   14  C10         0       1.131   0.216   0.646  1.00  0.00     0.139 C 
HETATM   15  C16         0       0.376  -1.185   0.312  1.00  0.00     0.081 C 
HETATM   16  C21         0      -0.867  -1.281   1.155  1.00  0.00     0.146 C 
HETATM   17  C22         0       1.185  -2.465   0.659  1.00  0.00     0.020 C 
HETATM   18  O4          0      -0.879  -0.812   2.298  1.00  0.00    -0.297 OA
HETATM   19  C24         0      -2.088  -1.954   0.607  1.00  0.00     0.151 C 
HETATM   20  C32         0      -2.345  -3.183   1.490  1.00  0.00     0.029 C 
HETATM   21  C31         0      -3.295  -1.114   0.809  1.00  0.00     0.270 C 
HETATM   22  O5          0      -4.287  -1.133  -0.127  1.00  0.00    -0.312 OA
HETATM   23  O8          0      -3.420  -0.445   1.841  1.00  0.00    -0.264 OA
HETATM   24  C30         0      -5.507  -0.480   0.096  1.00  0.00     0.169 C 
HETATM   25  C29         0      -5.670   0.707  -0.941  1.00  0.00     0.099 C 
HETATM   26  C34         0      -4.543   1.707  -0.689  1.00  0.00     0.016 C 
HETATM   27  C36         0      -5.629   0.166  -2.403  1.00  0.00     0.053 C 
HETATM   28  C33         0      -3.339   1.623  -1.263  1.00  0.00     0.049 C 
HETATM   29  C28         0      -2.344   2.654  -0.959  1.00  0.00     0.152 C 
HETATM   30  C19         0      -0.998   2.690  -1.648  1.00  0.00     0.056 C 
HETATM   31  O6          0      -2.630   3.550  -0.158  1.00  0.00    -0.293 OA
HETATM   32  C18         0      -0.119   1.478  -1.234  1.00  0.00     0.018 C 
HETATM   33  C27         0      -1.185   2.567  -3.171  1.00  0.00     0.018 C 
HETATM   34  C13         0       0.193   1.429   0.313  1.00  0.00     0.012 C 
HETATM   35  C20         0       0.952   2.706   0.762  1.00  0.00     0.012 C 
BRANCH  24  36
HETATM   36  C35         0      -6.651  -1.537  -0.023  1.00  0.00     0.031 C 
HETATM   37  C37         0      -6.451  -2.644   1.023  1.00  0.00     0.007 C 
ENDBRANCH  24  36
BRANCH  25  38
HETATM   38  O7          0      -6.916   1.386  -0.694  1.00  0.00    -0.384 OA
HETATM   39  H81         0      -7.681   0.789  -0.856  1.00  0.00     0.211 HD
ENDBRANCH  25  38
ENDBRANCH   1  14
TORSDOF 6
