REMARK  4 active torsions:
REMARK  status: ('A' for Active; 'I' for Inactive)
REMARK    1  A    between atoms: C7_7  and  C16_16 
REMARK    2  A    between atoms: C16_16  and  C22_22 
REMARK    3  A    between atoms: C24_24  and  C25_25 
REMARK    4  A    between atoms: C25_25  and  C26_26 
ROOT
HETATM    1  O1          0      -7.337  -4.464   0.095  1.00  0.00    -0.224 OA
HETATM    2  C2          0      -0.109   0.287   0.284  1.00  0.00     0.004 C 
HETATM    3  C3          0      -0.064  -1.104   0.832  1.00  0.00     0.018 C 
HETATM    4  C4          0      -2.416  -1.569  -0.153  1.00  0.00     0.018 C 
HETATM    5  C5          0      -3.852  -1.990   0.229  1.00  0.00     0.004 C 
HETATM    6  C6          0      -1.387  -1.797   0.954  1.00  0.00    -0.049 C 
HETATM    7  C7          0       1.433   0.490   0.270  1.00  0.00     0.004 C 
HETATM    8  C8          0      -3.757  -3.425   0.758  1.00  0.00     0.007 C 
HETATM    9  C9          0      -0.882   0.291  -1.059  1.00  0.00     0.001 C 
HETATM   10  C10         0      -2.348  -0.116  -0.733  1.00  0.00     0.004 C 
HETATM   11  C11         0       0.794  -1.017   2.112  1.00  0.00     0.004 C 
HETATM   12  C12         0      -1.597  -2.679   1.938  1.00  0.00    -0.035 C 
HETATM   13  C13         0       1.792   0.153   1.750  1.00  0.00     0.001 C 
HETATM   14  C14         0      -4.736  -1.958  -1.039  1.00  0.00     0.003 C 
HETATM   15  C15         0      -2.914  -3.430   2.070  1.00  0.00     0.025 C 
HETATM   16  C17         0      -0.782   1.279   1.285  1.00  0.00     0.000 C 
HETATM   17  C18         0      -5.163  -3.986   1.074  1.00  0.00     0.033 C 
HETATM   18  C19         0      -4.464  -1.041   1.314  1.00  0.00     0.000 C 
HETATM   19  C20         0      -6.035  -3.958  -0.206  1.00  0.00     0.152 C 
HETATM   20  C21         0      -6.150  -2.493  -0.709  1.00  0.00     0.033 C 
ENDROOT
BRANCH   7  21
HETATM   21  C16         0       2.034   1.881  -0.157  1.00  0.00     0.022 C 
HETATM   22  C23         0       1.735   2.321  -1.614  1.00  0.00     0.005 C 
BRANCH  21  23
HETATM   23  C22         0       3.525   1.849   0.044  1.00  0.00    -0.031 C 
HETATM   24  C24         0       4.321   2.653  -0.660  1.00  0.00    -0.031 C 
BRANCH  24  25
HETATM   25  C25         0       5.812   2.619  -0.457  1.00  0.00     0.022 C 
HETATM   26  C27         0       6.144   2.219   0.997  1.00  0.00     0.005 C 
BRANCH  25  27
HETATM   27  C26         0       6.429   3.986  -0.820  1.00  0.00     0.004 C 
HETATM   28  C28         0       6.097   4.329  -2.286  1.00  0.00     0.000 C 
HETATM   29  C29         0       7.959   3.931  -0.644  1.00  0.00     0.000 C 
ENDBRANCH  25  27
ENDBRANCH  24  25
ENDBRANCH  21  23
ENDBRANCH   7  21
TORSDOF 4
