REMARK  4 active torsions:
REMARK  status: ('A' for Active; 'I' for Inactive)
REMARK    1  A    between atoms: C3_3  and  C12_12 
REMARK    2  A    between atoms: C12_12  and  C21_21 
REMARK    3  A    between atoms: C24_24  and  C25_25 
REMARK    4  A    between atoms: C25_25  and  C26_26 
ROOT
HETATM    1  O1          0      -8.089  -0.161   0.800  1.00  0.00    -0.293 OA
HETATM    2  C2          0       0.283  -0.386  -0.440  1.00  0.00    -0.016 C 
HETATM    3  C3          0       1.740   0.131   0.091  1.00  0.00     0.005 C 
HETATM    4  C4          0      -0.519   0.827  -0.200  1.00  0.00    -0.065 C 
HETATM    5  C5          0      -2.593  -0.503   0.266  1.00  0.00     0.031 C 
HETATM    6  C6          0      -0.371  -1.660   0.241  1.00  0.00     0.015 C 
HETATM    7  C7          0      -1.832  -1.773  -0.273  1.00  0.00     0.011 C 
HETATM    8  C8          0      -4.076  -0.384  -0.209  1.00  0.00    -0.009 C 
HETATM    9  C9          0       1.769   1.517  -0.622  1.00  0.00     0.010 C 
HETATM   10  C10         0      -1.840   0.821   0.055  1.00  0.00    -0.050 C 
HETATM   11  C11         0       0.391   2.048  -0.112  1.00  0.00     0.036 C 
HETATM   12  C13         0       0.351  -0.690  -2.041  1.00  0.00     0.020 C 
HETATM   13  C14         0      -4.897  -1.639   0.236  1.00  0.00     0.022 C 
HETATM   14  C15         0      -4.694   0.860   0.394  1.00  0.00    -0.046 C 
HETATM   15  C16         0      -2.558   2.078   0.384  1.00  0.00     0.008 C 
HETATM   16  C17         0      -4.096  -0.212  -1.779  1.00  0.00     0.021 C 
HETATM   17  C18         0      -3.879   2.075   0.584  1.00  0.00     0.009 C 
HETATM   18  C20         0      -6.375  -1.499  -0.137  1.00  0.00     0.084 C 
HETATM   19  C22         0      -5.996   0.910   0.705  1.00  0.00     0.058 C 
HETATM   20  C23         0      -6.896  -0.245   0.491  1.00  0.00     0.149 C 
ENDROOT
BRANCH   3  21
HETATM   21  C12         0       3.023  -0.744  -0.192  1.00  0.00     0.009 C 
HETATM   22  C19         0       3.029  -2.111   0.528  1.00  0.00     0.014 C 
BRANCH  21  23
HETATM   23  C21         0       4.216  -0.006   0.313  1.00  0.00    -0.026 C 
HETATM   24  C24         0       5.414  -0.252  -0.205  1.00  0.00    -0.026 C 
BRANCH  24  25
HETATM   25  C25         0       6.607   0.487   0.302  1.00  0.00     0.007 C 
HETATM   26  C27         0       6.682   1.805  -0.509  1.00  0.00     0.014 C 
BRANCH  25  27
HETATM   27  C26         0       7.899  -0.379   0.107  1.00  0.00    -0.015 C 
HETATM   28  C29         0       9.160   0.354   0.623  1.00  0.00     0.010 C 
HETATM   29  C28         0       7.771  -1.689   0.915  1.00  0.00     0.010 C 
ENDBRANCH  25  27
ENDBRANCH  24  25
ENDBRANCH  21  23
ENDBRANCH   3  21
TORSDOF 4
