REMARK  6 active torsions:
REMARK  status: ('A' for Active; 'I' for Inactive)
REMARK    1  A    between atoms: O1_1  and  C21_21 
REMARK    2  A    between atoms: C6_6  and  C13_13 
REMARK    3  A    between atoms: C13_13  and  C22_22 
REMARK    4  A    between atoms: C22_22  and  C24_24 
REMARK    5  A    between atoms: C24_24  and  C25_25 
REMARK    6  A    between atoms: C25_25  and  C26_26 
ROOT
HETATM    1  O1          0       0.667  -5.945  -0.589  1.00  0.00    -0.396 OA
HETATM    2  H66         0      -0.023  -5.692  -1.251  1.00  0.00     0.210 HD
ENDROOT
BRANCH   1   3
HETATM    3  C21         0       1.818  -5.123  -0.771  1.00  0.00     0.118 C 
HETATM    4  C20         0       1.422  -3.634  -0.583  1.00  0.00     0.032 C 
HETATM    5  C14         0       2.689  -2.763  -0.799  1.00  0.00     0.012 C 
HETATM    6  C5          0       3.812  -3.130   0.224  1.00  0.00    -0.033 C 
HETATM    7  C11         0       4.150  -4.621   0.056  1.00  0.00     0.000 C 
HETATM    8  C19         0       3.319  -2.770   1.714  1.00  0.00     0.016 C 
HETATM    9  C4          0       5.133  -2.353  -0.159  1.00  0.00     0.023 C 
HETATM   10  C16         0       5.224  -5.029   1.108  1.00  0.00     0.033 C 
HETATM   11  C18         0       2.903  -5.518   0.259  1.00  0.00     0.037 C 
HETATM   12  C17         0       6.435  -4.123   1.098  1.00  0.00    -0.023 C 
HETATM   13  C7          0       6.386  -2.882   0.573  1.00  0.00    -0.074 C 
HETATM   14  C3          0       7.635  -2.011   0.477  1.00  0.00     0.023 C 
HETATM   15  C2          0       7.448  -0.557   0.645  1.00  0.00    -0.033 C 
HETATM   16  C10         0       8.902  -2.395   1.319  1.00  0.00     0.010 C 
HETATM   17  C8          0       6.328  -0.088  -0.370  1.00  0.00     0.011 C 
HETATM   18  C15         0       7.029  -0.072   2.127  1.00  0.00     0.016 C 
HETATM   19  C6          0       8.993  -0.175   0.216  1.00  0.00    -0.002 C 
HETATM   20  C9          0       4.981  -0.778  -0.024  1.00  0.00     0.010 C 
HETATM   21  C12         0       9.735  -1.058   1.266  1.00  0.00     0.006 C 
BRANCH  19  22
HETATM   22  C13         0       9.517   1.344   0.224  1.00  0.00    -0.014 C 
HETATM   23  C23         0       8.762   2.236  -0.811  1.00  0.00     0.010 C 
BRANCH  22  24
HETATM   24  C22         0      11.054   1.338  -0.137  1.00  0.00     0.005 C 
BRANCH  24  25
HETATM   25  C24         0      11.688   2.767  -0.084  1.00  0.00     0.005 C 
BRANCH  25  26
HETATM   26  C25         0      13.232   2.747  -0.409  1.00  0.00    -0.015 C 
HETATM   27  C27         0      13.445   2.206  -1.866  1.00  0.00     0.010 C 
BRANCH  26  28
HETATM   28  C26         0      13.831   4.219  -0.289  1.00  0.00    -0.019 C 
HETATM   29  C28         0      15.355   4.237  -0.573  1.00  0.00     0.010 C 
HETATM   30  C29         0      13.666   4.784   1.145  1.00  0.00     0.010 C 
ENDBRANCH  26  28
ENDBRANCH  25  26
ENDBRANCH  24  25
ENDBRANCH  22  24
ENDBRANCH  19  22
ENDBRANCH   1   3
TORSDOF 6
