REMARK  5 active torsions:
REMARK  status: ('A' for Active; 'I' for Inactive)
REMARK    1  A    between atoms: O1_1  and  C21_21 
REMARK    2  A    between atoms: C4_4  and  C13_13 
REMARK    3  A    between atoms: C13_13  and  C23_23 
REMARK    4  A    between atoms: C24_24  and  C25_25 
REMARK    5  A    between atoms: C25_25  and  C26_26 
ROOT
HETATM    1  O1          0       0.898  -6.043  -0.294  1.00  0.00    -0.395 OA
HETATM    2  H62         0       0.151  -5.801  -0.895  1.00  0.00     0.210 HD
ENDROOT
BRANCH   1   3
HETATM    3  C21         0       1.976  -5.130  -0.488  1.00  0.00     0.122 C 
HETATM    4  C20         0       1.513  -3.681  -0.196  1.00  0.00     0.033 C 
HETATM    5  C15         0       2.724  -2.789  -0.531  1.00  0.00     0.017 C 
HETATM    6  C9          0       3.974  -3.081   0.361  1.00  0.00    -0.013 C 
HETATM    7  C14         0       4.270  -4.542   0.416  1.00  0.00    -0.069 C 
HETATM    8  C17         0       3.677  -2.688   1.864  1.00  0.00     0.021 C 
HETATM    9  C5          0       5.213  -2.279  -0.204  1.00  0.00     0.027 C 
HETATM   10  C19         0       3.129  -5.527   0.449  1.00  0.00     0.066 C 
HETATM   11  C18         0       5.512  -4.966   0.661  1.00  0.00     0.004 C 
HETATM   12  C16         0       6.653  -4.019   0.780  1.00  0.00     0.004 C 
HETATM   13  C7          0       6.512  -2.734   0.429  1.00  0.00    -0.070 C 
HETATM   14  C3          0       7.710  -1.802   0.332  1.00  0.00     0.023 C 
HETATM   15  C2          0       7.464  -0.359   0.467  1.00  0.00    -0.032 C 
HETATM   16  C8          0       9.006  -2.121   1.161  1.00  0.00     0.010 C 
HETATM   17  C6          0       6.305   0.038  -0.552  1.00  0.00     0.011 C 
HETATM   18  C12         0       7.056   0.152   1.948  1.00  0.00     0.016 C 
HETATM   19  C4          0       8.977   0.066   0.009  1.00  0.00     0.002 C 
HETATM   20  C11         0       5.002  -0.698  -0.129  1.00  0.00     0.011 C 
HETATM   21  C10         0       9.781  -0.743   1.064  1.00  0.00     0.007 C 
BRANCH  19  22
HETATM   22  C13         0       9.432   1.574  -0.019  1.00  0.00     0.008 C 
HETATM   23  C22         0       8.686   2.441  -1.056  1.00  0.00     0.014 C 
BRANCH  22  24
HETATM   24  C23         0      10.875   1.625  -0.395  1.00  0.00    -0.026 C 
HETATM   25  C24         0      11.625   2.650  -0.003  1.00  0.00    -0.026 C 
BRANCH  25  26
HETATM   26  C25         0      13.085   2.707  -0.378  1.00  0.00     0.007 C 
HETATM   27  C27         0      13.809   1.520   0.340  1.00  0.00     0.014 C 
BRANCH  26  28
HETATM   28  C26         0      13.687   4.131  -0.029  1.00  0.00    -0.015 C 
HETATM   29  C28         0      15.168   4.214  -0.457  1.00  0.00     0.010 C 
HETATM   30  C29         0      13.611   4.446   1.491  1.00  0.00     0.010 C 
ENDBRANCH  26  28
ENDBRANCH  25  26
ENDBRANCH  22  24
ENDBRANCH  19  22
ENDBRANCH   1   3
TORSDOF 5
