REMARK  9 active torsions:
REMARK  status: ('A' for Active; 'I' for Inactive)
REMARK    1  A    between atoms: O1_1  and  C11_11 
REMARK    2  A    between atoms: O1_1  and  C17_17 
REMARK    3  A    between atoms: O2_2  and  C14_14 
REMARK    4  A    between atoms: O3_3  and  C18_18 
REMARK    5  A    between atoms: N4_4  and  C13_13 
REMARK    6  A    between atoms: N4_4  and  C15_15 
REMARK    7  A    between atoms: C5_5  and  C10_10 
REMARK    8  A    between atoms: C14_14  and  C17_17 
REMARK    9  A    between atoms: C14_14  and  C15_15 
ROOT
HETATM    1  O1          0       0.180  -0.054  -1.152  1.00  0.00    -0.348 OA
ENDROOT
BRANCH   1   2
HETATM    2  C11         0      -0.941  -0.797  -0.692  1.00  0.00     0.075 A 
HETATM    3  C16         0      -1.209  -2.218  -1.076  1.00  0.00     0.040 A 
HETATM    4  C19         0      -2.284  -2.842  -0.599  1.00  0.00     0.039 A 
HETATM    5  C18         0      -3.200  -2.149   0.297  1.00  0.00     0.066 A 
HETATM    6  C12         0      -2.971  -0.887   0.645  1.00  0.00     0.046 A 
HETATM    7  C10         0      -1.787  -0.175   0.127  1.00  0.00    -0.018 A 
BRANCH   5   8
HETATM    8  O3          0      -4.319  -2.808   0.790  1.00  0.00    -0.361 OA
HETATM    9  H51         0      -4.828  -2.198   1.378  1.00  0.00     0.217 HD
ENDBRANCH   5   8
BRANCH   7  10
HETATM   10  C5          0      -1.492   1.266   0.513  1.00  0.00     0.021 C 
HETATM   11  C6          0      -2.436   2.044  -0.465  1.00  0.00     0.009 C 
HETATM   12  C8          0      -2.821   3.302   0.237  1.00  0.00     0.001 C 
HETATM   13  C9          0      -3.335   2.521   1.551  1.00  0.00     0.001 C 
HETATM   14  C7          0      -1.997   1.918   1.841  1.00  0.00     0.009 C 
ENDBRANCH   7  10
ENDBRANCH   1   2
BRANCH   1  15
HETATM   15  C17         0       1.080  -0.750  -2.014  1.00  0.00     0.209 C 
BRANCH  15  16
HETATM   16  C14         0       2.218   0.208  -2.387  1.00  0.00     0.170 C 
BRANCH  16  17
HETATM   17  O2          0       1.665   1.333  -3.067  1.00  0.00    -0.392 OA
HETATM   18  H50         0       2.392   1.957  -3.313  1.00  0.00     0.210 HD
ENDBRANCH  16  17
BRANCH  16  19
HETATM   19  C15         0       2.948   0.710  -1.115  1.00  0.00     0.304 C 
BRANCH  19  20
HETATM   20  N4          0       3.575  -0.432  -0.351  1.00  0.00     0.094 N 
HETATM   21  H39         0       2.850  -1.095  -0.064  1.00  0.00     0.317 HD
BRANCH  20  22
HETATM   22  C13         0       4.337  -0.041   0.892  1.00  0.00     0.147 C 
HETATM   23  C20         0       4.914  -1.318   1.505  1.00  0.00     0.048 C 
HETATM   24  C21         0       5.506   0.917   0.568  1.00  0.00     0.048 C 
HETATM   25  C22         0       3.402   0.623   1.927  1.00  0.00     0.048 C 
ENDBRANCH  20  22
ENDBRANCH  19  20
ENDBRANCH  16  19
ENDBRANCH  15  16
ENDBRANCH   1  15
TORSDOF 9
