REMARK  5 active torsions:
REMARK  status: ('A' for Active; 'I' for Inactive)
REMARK    1  A    between atoms: O1_1  and  C22_22 
REMARK    2  A    between atoms: C4_4  and  C9_9 
REMARK    3  A    between atoms: C9_9  and  C16_16 
REMARK    4  A    between atoms: C23_23  and  C24_24 
REMARK    5  A    between atoms: C24_24  and  C25_25 
ROOT
HETATM    1  O1          0       0.596  -5.913  -0.180  1.00  0.00    -0.395 OA
HETATM    2  H59         0      -0.262  -5.543  -0.503  1.00  0.00     0.210 HD
ENDROOT
BRANCH   1   3
HETATM    3  C22         0       1.636  -4.966  -0.415  1.00  0.00     0.122 C 
HETATM    4  C21         0       1.391  -3.680   0.335  1.00  0.00     0.036 C 
HETATM    5  C18         0       2.503  -2.703  -0.095  1.00  0.00     0.042 C 
HETATM    6  C13         0       3.914  -3.263   0.042  1.00  0.00    -0.045 A 
HETATM    7  C17         0       4.104  -4.586   0.119  1.00  0.00    -0.049 A 
HETATM    8  C12         0       5.098  -2.352   0.040  1.00  0.00    -0.045 A 
HETATM    9  C20         0       2.947  -5.546   0.147  1.00  0.00     0.070 C 
HETATM   10  C19         0       5.448  -5.132   0.226  1.00  0.00     0.008 A 
HETATM   11  C14         0       6.506  -4.330   0.243  1.00  0.00     0.009 A 
HETATM   12  C8          0       6.335  -2.879   0.152  1.00  0.00    -0.046 A 
HETATM   13  C3          0       7.553  -1.972   0.133  1.00  0.00     0.028 C 
HETATM   14  C5          0       8.857  -2.443   0.868  1.00  0.00     0.010 C 
HETATM   15  C2          0       7.362  -0.557   0.491  1.00  0.00    -0.032 C 
HETATM   16  C6          0       9.678  -1.086   0.938  1.00  0.00     0.007 C 
HETATM   17  C4          0       8.868  -0.119   0.033  1.00  0.00     0.002 C 
HETATM   18  C7          0       6.223  -0.069  -0.426  1.00  0.00     0.014 C 
HETATM   19  C10         0       7.012  -0.212   2.031  1.00  0.00     0.016 C 
HETATM   20  C11         0       4.906  -0.808  -0.036  1.00  0.00     0.040 C 
BRANCH  17  21
HETATM   21  C9          0       9.362   1.368   0.181  1.00  0.00     0.008 C 
HETATM   22  C15         0       8.601   2.379  -0.705  1.00  0.00     0.014 C 
BRANCH  21  23
HETATM   23  C16         0      10.791   1.438  -0.242  1.00  0.00    -0.026 C 
HETATM   24  C23         0      11.572   2.405   0.225  1.00  0.00    -0.026 C 
BRANCH  24  25
HETATM   25  C24         0      13.002   2.472  -0.199  1.00  0.00     0.007 C 
HETATM   26  C26         0      13.790   1.559   0.773  1.00  0.00     0.014 C 
BRANCH  25  27
HETATM   27  C25         0      13.512   3.953  -0.133  1.00  0.00    -0.015 C 
HETATM   28  C28         0      12.686   4.829  -1.099  1.00  0.00     0.010 C 
HETATM   29  C27         0      14.993   4.065  -0.568  1.00  0.00     0.010 C 
ENDBRANCH  25  27
ENDBRANCH  24  25
ENDBRANCH  21  23
ENDBRANCH  17  21
ENDBRANCH   1   3
TORSDOF 5
