REMARK  5 active torsions:
REMARK  status: ('A' for Active; 'I' for Inactive)
REMARK    1  A    between atoms: O1_1  and  C11_11 
REMARK    2  A    between atoms: O3_3  and  C13_13 
REMARK    3  A    between atoms: C5_5  and  C6_6 
REMARK    4  A    between atoms: C6_6  and  C12_12 
REMARK    5  A    between atoms: C12_12  and  C13_13 
ROOT
HETATM    1  O1          0       4.143   0.988  -0.276  1.00  0.00    -0.361 OA
HETATM    2  H20         0       4.323   1.208  -1.223  1.00  0.00     0.217 HD
ENDROOT
BRANCH   1   3
HETATM    3  C11         0       2.891   0.395  -0.168  1.00  0.00     0.065 A 
HETATM    4  C9          0       2.146   0.211  -1.256  1.00  0.00     0.037 A 
HETATM    5  C7          0       0.828  -0.412  -1.142  1.00  0.00     0.010 A 
HETATM    6  C5          0       0.375  -0.794   0.049  1.00  0.00    -0.051 A 
HETATM    7  C8          0       1.190  -0.592   1.244  1.00  0.00     0.010 A 
HETATM    8  C10         0       2.390  -0.025   1.142  1.00  0.00     0.037 A 
BRANCH   6   9
HETATM    9  C6          0      -0.972  -1.429   0.165  1.00  0.00     0.129 C 
BRANCH   9  10
HETATM   10  C12         0      -1.910  -0.360   0.635  1.00  0.00     0.226 C 
HETATM   11  O2          0      -2.013  -0.116   1.842  1.00  0.00    -0.286 OA
BRANCH  10  12
HETATM   12  C13         0      -2.698   0.397  -0.333  1.00  0.00     0.213 C 
HETATM   13  O4          0      -2.591   0.155  -1.541  1.00  0.00    -0.644 OA
BRANCH  12  14
HETATM   14  O3          0      -3.567   1.390   0.102  1.00  0.00    -0.771 OA
HETATM   15  H21         0      -4.017   1.799  -0.678  1.00  0.00     0.168 HD
ENDBRANCH  12  14
ENDBRANCH  10  12
ENDBRANCH   9  10
ENDBRANCH   6   9
ENDBRANCH   1   3
TORSDOF 5
