REMARK  4 active torsions:
REMARK  status: ('A' for Active; 'I' for Inactive)
REMARK    1  A    between atoms: C2_2  and  C6_6 
REMARK    2  A    between atoms: C6_6  and  C17_17 
REMARK    3  A    between atoms: C23_23  and  C24_24 
REMARK    4  A    between atoms: C24_24  and  C25_25 
ROOT
HETATM    1  C1          0      -0.026   0.245  -0.459  1.00  0.00    -0.009 C 
HETATM    2  C2          0      -1.471  -0.167   0.045  1.00  0.00     0.009 C 
HETATM    3  C3          0       0.704  -0.952  -0.099  1.00  0.00    -0.042 C 
HETATM    4  C4          0       0.592   1.463   0.229  1.00  0.00     0.042 C 
HETATM    5  C5          0      -1.528  -1.607  -0.493  1.00  0.00     0.034 C 
HETATM    6  C7          0       2.152  -0.905   0.108  1.00  0.00    -0.022 C 
HETATM    7  C8          0       2.828   0.414  -0.003  1.00  0.00    -0.038 C 
HETATM    8  C9          0       4.339   0.468  -0.116  1.00  0.00     0.011 C 
HETATM    9  C10         0      -0.111  -2.017  -0.087  1.00  0.00    -0.018 C 
HETATM   10  C11         0       0.063   0.464  -2.024  1.00  0.00     0.021 C 
HETATM   11  C12         0       2.085   1.544  -0.018  1.00  0.00    -0.017 C 
HETATM   12  C13         0       4.993  -0.831   0.297  1.00  0.00    -0.063 C 
HETATM   13  C14         0       4.962   1.610   0.722  1.00  0.00     0.045 C 
HETATM   14  C15         0       2.852  -2.011   0.333  1.00  0.00     0.013 C 
HETATM   15  C18         0       4.641   0.747  -1.624  1.00  0.00     0.025 C 
HETATM   16  C19         0       4.300  -1.955   0.487  1.00  0.00     0.005 C 
HETATM   17  C20         0       6.491  -0.879   0.497  1.00  0.00     0.062 C 
HETATM   18  C21         0       6.470   1.620   0.628  1.00  0.00    -0.029 C 
HETATM   19  C22         0       7.172   0.483   0.541  1.00  0.00    -0.026 C 
ENDROOT
BRANCH   2  20
HETATM   20  C6          0      -2.749   0.697  -0.310  1.00  0.00     0.009 C 
HETATM   21  C16         0      -2.744   2.130   0.270  1.00  0.00     0.014 C 
BRANCH  20  22
HETATM   22  C17         0      -3.949   0.023   0.267  1.00  0.00    -0.026 C 
HETATM   23  C23         0      -5.146   0.235  -0.266  1.00  0.00    -0.026 C 
BRANCH  23  24
HETATM   24  C24         0      -6.346  -0.440   0.314  1.00  0.00     0.007 C 
HETATM   25  C26         0      -6.434  -1.830  -0.364  1.00  0.00     0.014 C 
BRANCH  24  26
HETATM   26  C25         0      -7.630   0.415   0.036  1.00  0.00    -0.015 C 
HETATM   27  C27         0      -8.897  -0.252   0.624  1.00  0.00     0.010 C 
HETATM   28  C28         0      -7.488   1.797   0.711  1.00  0.00     0.010 C 
ENDBRANCH  24  26
ENDBRANCH  23  24
ENDBRANCH  20  22
ENDBRANCH   2  20
TORSDOF 4
