REMARK  7 active torsions:
REMARK  status: ('A' for Active; 'I' for Inactive)
REMARK    1  A    between atoms: O1_1  and  C13_13 
REMARK    2  A    between atoms: O2_2  and  C14_14 
REMARK    3  A    between atoms: O3_3  and  C17_17 
REMARK    4  A    between atoms: O4_4  and  C18_18 
REMARK    5  A    between atoms: O5_5  and  C24_24 
REMARK    6  A    between atoms: O7_7  and  C35_35 
REMARK    7  A    between atoms: C20_20  and  C24_24 
ROOT
HETATM    1  O1          0      -0.680   5.001   0.095  1.00  0.00    -0.395 OA
HETATM    2  H65         0      -0.630   5.316  -0.838  1.00  0.00     0.210 HD
ENDROOT
BRANCH   1   3
HETATM    3  C13         0      -0.864   3.576   0.140  1.00  0.00     0.130 C 
HETATM    4  C12         0      -2.254   3.173  -0.505  1.00  0.00     0.040 C 
HETATM    5  C19         0      -2.338   3.576  -2.026  1.00  0.00     0.015 C 
HETATM    6  C14         0      -3.417   3.869   0.299  1.00  0.00     0.130 C 
HETATM    7  C16         0      -4.862   3.379  -0.206  1.00  0.00     0.040 C 
HETATM    8  C18         0      -4.965   1.800   0.051  1.00  0.00     0.131 C 
HETATM    9  C23         0      -5.983   4.147   0.545  1.00  0.00     0.015 C 
HETATM   10  C22         0      -6.280   1.099  -0.421  1.00  0.00     0.033 C 
HETATM   11  C27         0      -6.207  -0.403  -0.083  1.00  0.00    -0.020 C 
HETATM   12  C26         0      -6.427   1.248  -1.951  1.00  0.00     0.017 C 
HETATM   13  C29         0      -5.063  -1.099  -0.157  1.00  0.00    -0.003 C 
HETATM   14  C33         0      -5.038  -2.510   0.265  1.00  0.00     0.012 C 
HETATM   15  C36         0      -3.909  -3.237   0.385  1.00  0.00     0.006 C 
HETATM   16  C43         0      -2.507  -2.711   0.064  1.00  0.00     0.251 C 
HETATM   17  C44         0      -4.076  -4.640   0.901  1.00  0.00     0.054 C 
HETATM   18  N11         0      -1.401  -3.389   0.475  1.00  0.00    -0.320 N 
HETATM   19  O10         0      -2.380  -1.643  -0.539  1.00  0.00    -0.268 OA
HETATM   20  H87         0      -1.514  -4.213   1.007  1.00  0.00     0.169 HD
HETATM   21  C42         0      -0.043  -2.952   0.235  1.00  0.00     0.090 A 
HETATM   22  C41         0       1.007  -3.514   1.070  1.00  0.00     0.209 A 
HETATM   23  C45         0       0.299  -2.076  -0.712  1.00  0.00     0.089 A 
HETATM   24  O9          0       0.717  -4.351   1.932  1.00  0.00    -0.285 OA
HETATM   25  C37         0       2.399  -3.077   0.930  1.00  0.00     0.032 A 
HETATM   26  C34         0       2.748  -2.174   0.010  1.00  0.00     0.045 A 
HETATM   27  C40         0       3.393  -3.670   1.793  1.00  0.00     0.026 A 
HETATM   28  C39         0       1.698  -1.676  -0.894  1.00  0.00     0.186 A 
HETATM   29  C32         0       4.211  -1.760  -0.118  1.00  0.00     0.063 A 
HETATM   30  O8          0       1.973  -0.929  -1.836  1.00  0.00    -0.287 OA
HETATM   31  C35         0       5.112  -2.371   0.681  1.00  0.00     0.086 A 
HETATM   32  C30         0       4.693  -0.744  -1.135  1.00  0.00     0.191 C 
HETATM   33  C38         0       4.671  -3.348   1.668  1.00  0.00    -0.027 A 
HETATM   34  C46         0       5.681  -3.989   2.564  1.00  0.00     0.051 C 
HETATM   35  C28         0       4.242   0.704  -1.252  1.00  0.00    -0.014 C 
HETATM   36  O6          0       5.687  -1.049  -1.803  1.00  0.00    -0.287 OA
HETATM   37  C31         0       4.826   1.463  -2.433  1.00  0.00     0.052 C 
HETATM   38  C25         0       3.437   1.314  -0.342  1.00  0.00    -0.007 C 
HETATM   39  C20         0       3.078   2.860  -0.416  1.00  0.00     0.061 C 
HETATM   40  C17         0       1.678   3.344   0.188  1.00  0.00     0.134 C 
HETATM   41  C15         0       0.366   2.881  -0.572  1.00  0.00     0.040 C 
HETATM   42  C21         0       0.183   1.358  -0.544  1.00  0.00     0.015 C 
BRANCH   6  43
HETATM   43  O2          0      -3.252   3.537   1.693  1.00  0.00    -0.395 OA
HETATM   44  H66         0      -3.922   3.994   2.248  1.00  0.00     0.210 HD
ENDBRANCH   6  43
BRANCH   8  45
HETATM   45  O4          0      -4.819   1.539   1.462  1.00  0.00    -0.394 OA
HETATM   46  H74         0      -5.573   1.917   1.970  1.00  0.00     0.210 HD
ENDBRANCH   8  45
BRANCH  31  47
HETATM   47  O7          0       6.508  -2.097   0.653  1.00  0.00    -0.359 OA
HETATM   48  H91         0       6.759  -1.425  -0.001  1.00  0.00     0.217 HD
ENDBRANCH  31  47
BRANCH  39  49
HETATM   49  C24         0       4.104   3.575   0.499  1.00  0.00     0.175 C 
BRANCH  49  50
HETATM   50  O5          0       5.436   3.310   0.068  1.00  0.00    -0.400 OA
HETATM   51  H77         0       6.073   3.773   0.664  1.00  0.00     0.209 HD
ENDBRANCH  49  50
ENDBRANCH  39  49
BRANCH  40  52
HETATM   52  O3          0       1.606   2.951   1.574  1.00  0.00    -0.394 OA
HETATM   53  H73         0       1.622   1.969   1.665  1.00  0.00     0.210 HD
ENDBRANCH  40  52
ENDBRANCH   1   3
TORSDOF 7
