REMARK  5 active torsions:
REMARK  status: ('A' for Active; 'I' for Inactive)
REMARK    1  A    between atoms: O1_1  and  C21_21 
REMARK    2  A    between atoms: C4_4  and  C13_13 
REMARK    3  A    between atoms: C13_13  and  C23_23 
REMARK    4  A    between atoms: C24_24  and  C25_25 
REMARK    5  A    between atoms: C25_25  and  C26_26 
ROOT
HETATM    1  O1          0       8.292   0.204   0.889  1.00  0.00    -0.395 OA
HETATM    2  H62         0       8.705   1.021   1.264  1.00  0.00     0.210 HD
ENDROOT
BRANCH   1   3
HETATM    3  C21         0       6.873   0.311   0.974  1.00  0.00     0.122 C 
HETATM    4  C19         0       6.249  -0.971   0.396  1.00  0.00     0.066 C 
HETATM    5  C14         0       4.745  -0.900   0.317  1.00  0.00    -0.069 C 
HETATM    6  C18         0       4.029  -2.023   0.412  1.00  0.00     0.004 C 
HETATM    7  C9          0       4.094   0.370  -0.114  1.00  0.00    -0.013 C 
HETATM    8  C16         0       2.557  -2.032   0.202  1.00  0.00     0.004 C 
HETATM    9  C7          0       1.871  -0.884   0.128  1.00  0.00    -0.070 C 
HETATM   10  C5          0       2.592   0.425   0.378  1.00  0.00     0.027 C 
HETATM   11  C3          0       0.351  -0.866   0.134  1.00  0.00     0.023 C 
HETATM   12  C11         0       1.807   1.690  -0.197  1.00  0.00     0.011 C 
HETATM   13  C6          0       0.303   1.611   0.191  1.00  0.00     0.011 C 
HETATM   14  C2          0      -0.320   0.299  -0.462  1.00  0.00    -0.032 C 
HETATM   15  C4          0      -1.804  -0.121   0.085  1.00  0.00     0.002 C 
HETATM   16  C12         0      -0.222   0.421  -2.074  1.00  0.00     0.016 C 
HETATM   17  C10         0      -1.894  -1.541  -0.538  1.00  0.00     0.007 C 
HETATM   18  C8          0      -0.440  -2.138  -0.343  1.00  0.00     0.010 C 
HETATM   19  C15         0       4.859   1.615   0.438  1.00  0.00     0.017 C 
HETATM   20  C17         0       4.175   0.333  -1.692  1.00  0.00     0.021 C 
HETATM   21  C20         0       6.379   1.555   0.193  1.00  0.00     0.033 C 
BRANCH  15  22
HETATM   22  C13         0      -3.079   0.736  -0.265  1.00  0.00     0.008 C 
HETATM   23  C22         0      -3.070   2.160   0.331  1.00  0.00     0.014 C 
BRANCH  22  24
HETATM   24  C23         0      -4.278   0.056   0.305  1.00  0.00    -0.026 C 
HETATM   25  C24         0      -5.473   0.258  -0.239  1.00  0.00    -0.026 C 
BRANCH  25  26
HETATM   26  C25         0      -6.672  -0.424   0.333  1.00  0.00     0.007 C 
HETATM   27  C27         0      -6.743  -1.818  -0.338  1.00  0.00     0.014 C 
BRANCH  26  28
HETATM   28  C26         0      -7.960   0.419   0.039  1.00  0.00    -0.015 C 
HETATM   29  C29         0      -9.227  -0.255   0.619  1.00  0.00     0.010 C 
HETATM   30  C28         0      -7.836   1.805   0.709  1.00  0.00     0.010 C 
ENDBRANCH  26  28
ENDBRANCH  25  26
ENDBRANCH  22  24
ENDBRANCH  15  22
ENDBRANCH   1   3
TORSDOF 5
