REMARK  4 active torsions:
REMARK  status: ('A' for Active; 'I' for Inactive)
REMARK    1  A    between atoms: O1_1  and  C8_8 
REMARK    2  A    between atoms: O2_2  and  C13_13 
REMARK    3  A    between atoms: C5_5  and  C9_9 
REMARK    4  A    between atoms: C12_12  and  C13_13 
ROOT
HETATM    1  O1          0       3.986  -0.976   1.608  1.00  0.00    -0.361 OA
HETATM    2  H20         0       4.900  -0.779   1.284  1.00  0.00     0.217 HD
ENDROOT
BRANCH   1   3
HETATM    3  C8          0       3.057  -0.488   0.698  1.00  0.00     0.066 A 
HETATM    4  C6          0       1.628  -0.657   0.954  1.00  0.00     0.048 A 
HETATM    5  C5          0       0.719  -0.197   0.095  1.00  0.00    -0.032 A 
HETATM    6  C7          0       1.196   0.497  -1.137  1.00  0.00     0.011 A 
HETATM    7  C10         0       2.500   0.645  -1.359  1.00  0.00     0.004 A 
HETATM    8  C11         0       3.472   0.132  -0.403  1.00  0.00     0.036 A 
BRANCH   5   9
HETATM    9  C9          0      -0.732  -0.433   0.469  1.00  0.00     0.041 C 
HETATM   10  C12         0      -1.827  -0.069  -0.225  1.00  0.00     0.118 C 
HETATM   11  C14         0      -1.808   0.620  -1.467  1.00  0.00     0.106 C 
HETATM   12  N4          0      -1.793   1.179  -2.473  1.00  0.00    -0.191 NA
BRANCH  10  13
HETATM   13  C13         0      -3.133  -0.406   0.337  1.00  0.00     0.187 C 
HETATM   14  O3          0      -3.211  -1.005   1.415  1.00  0.00    -0.645 OA
BRANCH  13  15
HETATM   15  O2          0      -4.291  -0.050  -0.344  1.00  0.00    -0.772 OA
HETATM   16  H21         0      -5.081  -0.351   0.170  1.00  0.00     0.167 HD
ENDBRANCH  13  15
ENDBRANCH  10  13
ENDBRANCH   5   9
ENDBRANCH   1   3
TORSDOF 4
