REMARK  3 active torsions:
REMARK  status: ('A' for Active; 'I' for Inactive)
REMARK    1  A    between atoms: C6_5  and  C8_13 
REMARK    2  A    between atoms: C9_6  and  N2_8 
REMARK    3  A    between atoms: C16_18  and  N7_23 
ROOT
HETATM    1  C1  H7W A1101       9.251  22.942  20.952  1.00 37.31     0.257 A 
HETATM    2  C3  H7W A1101      10.095  22.841  21.976  1.00 32.49     0.058 A 
HETATM    3  C4  H7W A1101       7.982  22.045  22.570  1.00 40.92     0.107 A 
HETATM    4  C5  H7W A1101       9.335  22.270  22.979  1.00 38.27     0.003 A 
HETATM    5  C6  H7W A1101      11.449  23.176  22.167  1.00 32.79     0.064 A 
HETATM    6  N2  H7W A1101       7.986  22.518  21.202  1.00 42.04    -0.317 N 
HETATM    7  O10 H7W A1101       9.570  23.438  19.876  1.00 34.38    -0.267 OA
HETATM    8  C18 H7W A1101       9.881  22.028  24.193  1.00 33.61    -0.002 A 
HETATM    9  C19 H7W A1101       7.555  20.574  22.737  1.00 51.11     0.029 C 
HETATM   10  C20 H7W A1101      11.997  22.916  23.470  1.00 32.39     0.005 A 
HETATM   11  C21 H7W A1101      11.214  22.343  24.484  1.00 33.70    -0.000 A 
ENDROOT
BRANCH   6  12
HETATM   12  C9  H7W A1101       6.970  22.700  20.099  1.00 47.32     0.088 C 
HETATM   13  C11 H7W A1101       5.634  23.284  20.576  1.00 47.30     0.046 C 
HETATM   14  C13 H7W A1101       4.713  23.539  19.405  1.00 46.25     0.099 C 
HETATM   15  N7  H7W A1101       4.566  22.292  18.628  1.00 52.11    -0.370 N 
HETATM   16  C14 H7W A1101       5.806  21.696  18.101  1.00 43.49     0.099 C 
HETATM   17  C12 H7W A1101       6.808  21.450  19.225  1.00 43.68     0.046 C 
BRANCH  15  18
HETATM   18  C16 H7W A1101       3.468  22.233  17.642  1.00 51.29     0.077 C 
HETATM   19  C23 H7W A1101       3.408  23.468  16.757  1.00 55.86     0.022 C 
HETATM   20  C24 H7W A1101       2.336  23.239  15.677  1.00 48.72     0.002 C 
HETATM   21  C26 H7W A1101       0.932  23.263  16.352  1.00 53.30     0.000 C 
HETATM   22  C25 H7W A1101       0.893  22.048  17.310  1.00 57.90     0.002 C 
HETATM   23  C22 H7W A1101       2.116  22.003  18.311  1.00 55.12     0.022 C 
ENDBRANCH  15  18
ENDBRANCH   6  12
BRANCH   5  24
HETATM   24  C8  H7W A1101      12.422  23.738  21.230  1.00 32.43     0.297 C 
HETATM   25  O15 H7W A1101      13.655  23.772  21.532  1.00 29.98    -0.264 OA
HETATM   26  N17 H7W A1101      12.002  24.141  19.997  1.00 25.34    -0.102 N 
ENDBRANCH   5  24
TORSDOF 3
