REMARK  8 active torsions:
REMARK  status: ('A' for Active; 'I' for Inactive)
REMARK    1  A    between atoms: O1_1  and  C23_23 
REMARK    2  A    between atoms: O1_1  and  C8_8 
REMARK    3  A    between atoms: O3_3  and  C22_22 
REMARK    4  A    between atoms: C7_7  and  C10_10 
REMARK    5  A    between atoms: C10_10  and  C15_15 
REMARK    6  A    between atoms: C15_15  and  C19_19 
REMARK    7  A    between atoms: C23_23  and  C25_25 
REMARK    8  A    between atoms: C25_25  and  C27_27 
ROOT
HETATM    1  O1          0       2.229  -0.842  -0.164  1.00  0.00    -0.315 OA
ENDROOT
BRANCH   1   2
HETATM    2  C23         0       2.371  -2.177   0.255  1.00  0.00     0.263 C 
HETATM    3  O4          0       2.229  -2.496   1.441  1.00  0.00    -0.265 OA
BRANCH   2   4
HETATM    4  C25         0       2.638  -3.228  -0.764  1.00  0.00     0.081 C 
HETATM    5  C28         0       3.622  -4.254  -0.194  1.00  0.00     0.020 C 
BRANCH   4   6
HETATM    6  C27         0       1.327  -3.982  -1.077  1.00  0.00     0.010 C 
HETATM    7  C29         0       0.262  -3.017  -1.656  1.00  0.00     0.006 C 
ENDBRANCH   4   6
ENDBRANCH   2   4
ENDBRANCH   1   2
BRANCH   1   8
HETATM    8  C8          0       1.936   0.036   0.928  1.00  0.00     0.141 C 
HETATM    9  C6          0       1.512   1.452   0.435  1.00  0.00     0.052 C 
HETATM   10  C7          0       0.322   1.419  -0.581  1.00  0.00     0.004 C 
HETATM   11  C11         0       2.667   2.237  -0.180  1.00  0.00    -0.055 C 
HETATM   12  C9          0      -0.051   2.909  -0.986  1.00  0.00     0.009 C 
HETATM   13  C18         0      -0.558   3.777   0.216  1.00  0.00     0.014 C 
HETATM   14  C16         0       1.154   3.614  -1.541  1.00  0.00    -0.022 C 
HETATM   15  C17         0       2.394   3.300  -1.158  1.00  0.00     0.004 C 
HETATM   16  C14         0       3.944   2.026   0.162  1.00  0.00    -0.015 C 
HETATM   17  C13         0       4.354   0.919   1.088  1.00  0.00     0.007 C 
HETATM   18  C12         0       3.126   0.320   1.876  1.00  0.00     0.041 C 
HETATM   19  C20         0       5.064  -0.092   0.152  1.00  0.00     0.014 C 
BRANCH  10  20
HETATM   20  C10         0      -0.924   0.650   0.015  1.00  0.00     0.009 C 
BRANCH  20  21
HETATM   21  C15         0      -2.076   0.551  -1.005  1.00  0.00     0.033 C 
BRANCH  21  22
HETATM   22  C19         0      -3.218  -0.226  -0.365  1.00  0.00     0.134 C 
HETATM   23  C21         0      -4.367  -0.391  -1.388  1.00  0.00     0.065 C 
HETATM   24  C22         0      -5.491  -1.137  -0.689  1.00  0.00     0.130 C 
HETATM   25  C24         0      -6.008  -0.216   0.424  1.00  0.00     0.142 C 
HETATM   26  C26         0      -4.899   0.240   1.318  1.00  0.00     0.261 C 
HETATM   27  O2          0      -3.637   0.417   0.814  1.00  0.00    -0.316 OA
HETATM   28  O5          0      -5.155   0.613   2.468  1.00  0.00    -0.265 OA
BRANCH  24  29
HETATM   29  O3          0      -4.981  -2.365  -0.168  1.00  0.00    -0.395 OA
HETATM   30  H59         0      -4.644  -2.923  -0.912  1.00  0.00     0.210 HD
ENDBRANCH  24  29
ENDBRANCH  21  22
ENDBRANCH  20  21
ENDBRANCH  10  20
ENDBRANCH   1   8
TORSDOF 8
