REMARK  4 active torsions:
REMARK  status: ('A' for Active; 'I' for Inactive)
REMARK    1  A    between atoms: C3_3  and  C12_12 
REMARK    2  A    between atoms: C12_12  and  C21_21 
REMARK    3  A    between atoms: C24_24  and  C25_25 
REMARK    4  A    between atoms: C25_25  and  C26_26 
ROOT
HETATM    1  O1          0      -8.089  -0.159   0.798  1.00  0.00    -0.293 OA
HETATM    2  C2          0       0.283  -0.387  -0.440  1.00  0.00    -0.016 C 
HETATM    3  C3          0       1.740   0.130   0.091  1.00  0.00     0.005 C 
HETATM    4  C4          0      -0.518   0.826  -0.201  1.00  0.00    -0.065 C 
HETATM    5  C5          0      -2.593  -0.502   0.266  1.00  0.00     0.031 C 
HETATM    6  C6          0      -0.371  -1.660   0.242  1.00  0.00     0.015 C 
HETATM    7  C7          0      -1.832  -1.773  -0.272  1.00  0.00     0.011 C 
HETATM    8  C8          0      -4.075  -0.383  -0.210  1.00  0.00    -0.009 C 
HETATM    9  C9          0       1.771   1.516  -0.623  1.00  0.00     0.010 C 
HETATM   10  C10         0      -1.839   0.821   0.053  1.00  0.00    -0.050 C 
HETATM   11  C11         0       0.392   2.047  -0.114  1.00  0.00     0.036 C 
HETATM   12  C13         0       0.352  -0.693  -2.040  1.00  0.00     0.020 C 
HETATM   13  C14         0      -4.897  -1.638   0.236  1.00  0.00     0.022 C 
HETATM   14  C15         0      -4.693   0.861   0.392  1.00  0.00    -0.046 C 
HETATM   15  C16         0      -2.557   2.078   0.382  1.00  0.00     0.008 C 
HETATM   16  C17         0      -4.095  -0.213  -1.780  1.00  0.00     0.021 C 
HETATM   17  C18         0      -3.878   2.076   0.581  1.00  0.00     0.009 C 
HETATM   18  C20         0      -6.374  -1.498  -0.138  1.00  0.00     0.084 C 
HETATM   19  C22         0      -5.995   0.912   0.703  1.00  0.00     0.058 C 
HETATM   20  C23         0      -6.896  -0.243   0.489  1.00  0.00     0.149 C 
ENDROOT
BRANCH   3  21
HETATM   21  C12         0       3.024  -0.745  -0.191  1.00  0.00     0.009 C 
HETATM   22  C19         0       3.029  -2.112   0.530  1.00  0.00     0.014 C 
BRANCH  21  23
HETATM   23  C21         0       4.217  -0.008   0.314  1.00  0.00    -0.026 C 
HETATM   24  C24         0       5.414  -0.253  -0.205  1.00  0.00    -0.026 C 
BRANCH  24  25
HETATM   25  C25         0       6.608   0.486   0.302  1.00  0.00     0.007 C 
HETATM   26  C27         0       6.681   1.805  -0.507  1.00  0.00     0.014 C 
BRANCH  25  27
HETATM   27  C26         0       7.900  -0.379   0.104  1.00  0.00    -0.015 C 
HETATM   28  C29         0       9.161   0.355   0.620  1.00  0.00     0.010 C 
HETATM   29  C28         0       7.774  -1.690   0.910  1.00  0.00     0.010 C 
ENDBRANCH  25  27
ENDBRANCH  24  25
ENDBRANCH  21  23
ENDBRANCH   3  21
TORSDOF 4
