REMARK  12 active torsions:
REMARK  status: ('A' for Active; 'I' for Inactive)
REMARK    1  A    between atoms: O1_1  and  C8_8 
REMARK    2  A    between atoms: O1_1  and  C9_9 
REMARK    3  A    between atoms: O2_2  and  C18_18 
REMARK    4  A    between atoms: O2_2  and  C15_15 
REMARK    5  A    between atoms: O3_3  and  C12_12 
REMARK    6  A    between atoms: N4_4  and  C14_14 
REMARK    7  A    between atoms: N4_4  and  C13_13 
REMARK    8  A    between atoms: C5_5  and  C8_8 
REMARK    9  A    between atoms: C9_9  and  C10_10 
REMARK   10  A    between atoms: C10_10  and  C11_11 
REMARK   11  A    between atoms: C12_12  and  C13_13 
REMARK   12  A    between atoms: C12_12  and  C15_15 
ROOT
HETATM    1  O1          0      -3.968   0.476   0.212  1.00  0.00    -0.390 OA
ENDROOT
BRANCH   1   2
HETATM    2  C8          0      -4.683  -0.655  -0.261  1.00  0.00     0.172 C 
BRANCH   2   3
HETATM    3  C5          0      -4.452  -1.825   0.698  1.00  0.00     0.009 A 
HETATM    4  C7          0      -3.194  -2.632   0.561  1.00  0.00     0.007 A 
HETATM    5  C6          0      -4.640  -3.227   0.195  1.00  0.00     0.007 A 
ENDBRANCH   2   3
ENDBRANCH   1   2
BRANCH   1   6
HETATM    6  C9          0      -4.164   1.563  -0.682  1.00  0.00     0.172 C 
BRANCH   6   7
HETATM    7  C10         0      -3.368   2.775  -0.179  1.00  0.00     0.064 C 
BRANCH   7   8
HETATM    8  C11         0      -1.926   2.380  -0.134  1.00  0.00    -0.056 A 
HETATM    9  C17         0      -1.353   1.866   1.104  1.00  0.00     0.010 A 
HETATM   10  C22         0      -0.073   1.506   1.152  1.00  0.00     0.037 A 
HETATM   11  C18         0       0.781   1.633  -0.072  1.00  0.00     0.068 A 
HETATM   12  C21         0       0.235   2.106  -1.190  1.00  0.00     0.037 A 
HETATM   13  C16         0      -1.174   2.496  -1.224  1.00  0.00     0.010 A 
BRANCH  11  14
HETATM   14  O2          0       2.159   1.272  -0.118  1.00  0.00    -0.349 OA
BRANCH  14  15
HETATM   15  C15         0       2.703   0.765   1.107  1.00  0.00     0.209 C 
BRANCH  15  16
HETATM   16  C12         0       4.177   0.409   0.885  1.00  0.00     0.170 C 
BRANCH  16  17
HETATM   17  C13         0       4.269  -0.649  -0.218  1.00  0.00     0.303 C 
BRANCH  17  18
HETATM   18  N4          0       3.517  -1.848   0.212  1.00  0.00     0.089 N 
HETATM   19  H38         0       3.938  -2.191   1.086  1.00  0.00     0.316 HD
BRANCH  18  20
HETATM   20  C14         0       3.554  -2.946  -0.793  1.00  0.00     0.212 C 
HETATM   21  C20         0       2.860  -2.555  -2.125  1.00  0.00     0.042 C 
HETATM   22  C19         0       2.800  -4.147  -0.211  1.00  0.00     0.042 C 
ENDBRANCH  18  20
ENDBRANCH  17  18
ENDBRANCH  16  17
BRANCH  16  23
HETATM   23  O3          0       4.898   1.573   0.487  1.00  0.00    -0.392 OA
HETATM   24  H51         0       5.846   1.336   0.337  1.00  0.00     0.210 HD
ENDBRANCH  16  23
ENDBRANCH  15  16
ENDBRANCH  14  15
ENDBRANCH  11  14
ENDBRANCH   7   8
ENDBRANCH   6   7
ENDBRANCH   1   6
TORSDOF 12
