REMARK  11 active torsions:
REMARK  status: ('A' for Active; 'I' for Inactive)
REMARK    1  A    between atoms: O1_1  and  C13_13 
REMARK    2  A    between atoms: O1_1  and  C19_19 
REMARK    3  A    between atoms: O3_3  and  C14_14 
REMARK    4  A    between atoms: O4_4  and  C22_22 
REMARK    5  A    between atoms: O5_5  and  C24_24 
REMARK    6  A    between atoms: O6_6  and  C26_26 
REMARK    7  A    between atoms: O8_8  and  C30_30 
REMARK    8  A    between atoms: O11_11  and  C35_35 
REMARK    9  A    between atoms: N12_12  and  C21_21 
REMARK   10  A    between atoms: C14_14  and  C25_25 
REMARK   11  A    between atoms: C25_25  and  C30_30 
ROOT
HETATM    1  O1          0       1.984   0.994  -0.196  1.00  0.00    -0.351 OA
ENDROOT
BRANCH   1   2
HETATM    2  C13         0       1.582  -0.025  -1.177  1.00  0.00     0.164 C 
HETATM    3  C17         0       0.211  -0.479  -0.692  1.00  0.00     0.014 A 
HETATM    4  C18         0       0.041  -1.683  -0.127  1.00  0.00    -0.009 A 
HETATM    5  C24         0      -0.960   0.456  -0.799  1.00  0.00     0.090 A 
HETATM    6  C26         0      -1.321  -2.082   0.365  1.00  0.00     0.088 A 
HETATM    7  C16         0       1.198  -2.651  -0.023  1.00  0.00     0.088 C 
HETATM    8  C28         0      -2.340  -1.230   0.250  1.00  0.00     0.066 A 
HETATM    9  C32         0      -3.678  -1.599   0.726  1.00  0.00     0.197 A 
HETATM   10  C27         0      -2.155   0.074  -0.346  1.00  0.00     0.066 A 
HETATM   11  C34         0      -4.795  -0.662   0.602  1.00  0.00     0.032 A 
HETATM   12  O10         0      -3.880  -2.704   1.240  1.00  0.00    -0.286 OA
HETATM   13  C36         0      -6.101  -1.073   1.090  1.00  0.00     0.017 A 
HETATM   14  C33         0      -4.634   0.546   0.055  1.00  0.00     0.062 A 
HETATM   15  C38         0      -7.140  -0.252   0.996  1.00  0.00     0.004 A 
HETATM   16  C37         0      -6.987   1.072   0.402  1.00  0.00     0.038 A 
HETATM   17  C35         0      -5.785   1.471  -0.056  1.00  0.00     0.083 A 
HETATM   18  C31         0      -3.313   0.974  -0.443  1.00  0.00     0.200 A 
HETATM   19  O9          0      -3.187   2.095  -0.946  1.00  0.00    -0.286 OA
HETATM   20  C14         0       2.583  -2.004  -0.047  1.00  0.00     0.127 C 
HETATM   21  C15         0       2.593  -1.199  -1.337  1.00  0.00     0.083 C 
BRANCH   6  22
HETATM   22  O6          0      -1.578  -3.346   0.957  1.00  0.00    -0.359 OA
HETATM   23  H61         0      -0.789  -3.914   1.005  1.00  0.00     0.217 HD
ENDBRANCH   6  22
BRANCH  17  24
HETATM   24  O11         0      -5.539   2.759  -0.656  1.00  0.00    -0.355 OA
HETATM   25  C39         0      -6.661   3.655  -0.761  1.00  0.00     0.210 C 
ENDBRANCH  17  24
BRANCH  20  26
HETATM   26  C25         0       3.597  -3.109  -0.131  1.00  0.00     0.184 C 
HETATM   27  O7          0       3.380  -4.081  -0.863  1.00  0.00    -0.292 OA
BRANCH  26  28
HETATM   28  C30         0       4.890  -3.024   0.620  1.00  0.00     0.245 C 
BRANCH  28  29
HETATM   29  O8          0       5.963  -3.184  -0.306  1.00  0.00    -0.393 OA
HETATM   30  H63         0       5.924  -2.460  -0.979  1.00  0.00     0.209 HD
ENDBRANCH  28  29
ENDBRANCH  26  28
ENDBRANCH  20  26
BRANCH  20  31
HETATM   31  O3          0       2.826  -1.168   1.078  1.00  0.00    -0.382 OA
HETATM   32  H51         0       2.760  -1.698   1.910  1.00  0.00     0.211 HD
ENDBRANCH  20  31
BRANCH   5  33
HETATM   33  O5          0      -0.850   1.752  -1.371  1.00  0.00    -0.359 OA
HETATM   34  H60         0       0.049   1.961  -1.679  1.00  0.00     0.217 HD
ENDBRANCH   5  33
ENDBRANCH   1   2
BRANCH   1  35
HETATM   35  C19         0       2.943   1.971  -0.746  1.00  0.00     0.263 C 
HETATM   36  C20         0       3.031   3.169   0.222  1.00  0.00     0.098 C 
HETATM   37  C21         0       3.651   2.723   1.538  1.00  0.00     0.253 C 
HETATM   38  C22         0       5.069   2.233   1.233  1.00  0.00     0.179 C 
HETATM   39  C23         0       4.962   1.044   0.252  1.00  0.00     0.151 C 
HETATM   40  C29         0       6.353   0.492  -0.099  1.00  0.00     0.042 C 
HETATM   41  O2          0       4.289   1.451  -0.977  1.00  0.00    -0.354 OA
BRANCH  37  42
HETATM   42  N12         0       3.716   3.856   2.463  1.00  0.00     0.085 N 
HETATM   43  H55         0       2.763   4.197   2.650  1.00  0.00     0.313 HD
HETATM   44  H56         0       4.273   4.611   2.041  1.00  0.00     0.313 HD
ENDBRANCH  37  42
BRANCH  38  45
HETATM   45  O4          0       5.813   3.331   0.659  1.00  0.00    -0.391 OA
HETATM   46  H59         0       6.744   3.071   0.473  1.00  0.00     0.210 HD
ENDBRANCH  38  45
ENDBRANCH   1  35
TORSDOF 11
