REMARK  5 active torsions:
REMARK  status: ('A' for Active; 'I' for Inactive)
REMARK    1  A    between atoms: C5_5  and  C12_12 
REMARK    2  A    between atoms: C12_12  and  C18_18 
REMARK    3  A    between atoms: C18_18  and  C23_23 
REMARK    4  A    between atoms: C23_23  and  C24_24 
REMARK    5  A    between atoms: C24_24  and  C25_25 
ROOT
HETATM    1  C1          0       6.154  -0.305   0.378  1.00  0.00    -0.036 C 
HETATM    2  C2          0       6.450  -1.925  -0.011  1.00  0.00    -0.001 C 
HETATM    3  C3          0       5.113  -2.819  -0.433  1.00  0.00    -0.001 C 
HETATM    4  C4          0       4.064  -2.346   0.277  1.00  0.00     0.003 C 
HETATM    5  C5          0       7.621   0.094   0.292  1.00  0.00    -0.002 C 
HETATM    6  C6          0       5.217   0.053  -0.636  1.00  0.00     0.010 C 
HETATM    7  C7          0       7.242  -2.167   1.278  1.00  0.00     0.006 C 
HETATM    8  C8          0       3.834  -0.758  -0.275  1.00  0.00     0.007 C 
HETATM    9  C9          0       8.260  -0.941   1.331  1.00  0.00     0.006 C 
HETATM   10  C10         0       2.693  -3.158   0.086  1.00  0.00    -0.013 C 
HETATM   11  C11         0       5.419  -4.296  -0.014  1.00  0.00     0.033 C 
HETATM   12  C13         0       5.524   0.234   1.834  1.00  0.00     0.016 C 
HETATM   13  C14         0       2.974  -4.679   0.036  1.00  0.00    -0.053 C 
HETATM   14  C15         0       1.944  -3.011  -1.285  1.00  0.00     0.018 C 
HETATM   15  C16         0       4.215  -5.173  -0.045  1.00  0.00    -0.019 C 
HETATM   16  C17         0       1.768  -2.645   1.257  1.00  0.00     0.021 C 
HETATM   17  C20         0       0.584  -3.826  -1.241  1.00  0.00     0.028 C 
HETATM   18  C21         0       1.908  -5.648  -0.214  1.00  0.00     0.003 C 
HETATM   19  C22         0       0.782  -5.267  -0.821  1.00  0.00    -0.026 C 
ENDROOT
BRANCH   5  20
HETATM   20  C12         0       8.169   1.590   0.447  1.00  0.00    -0.014 C 
HETATM   21  C19         0       7.549   2.539  -0.627  1.00  0.00     0.010 C 
BRANCH  20  22
HETATM   22  C18         0       9.734   1.571   0.279  1.00  0.00     0.009 C 
BRANCH  22  23
HETATM   23  C23         0      10.375   2.979   0.473  1.00  0.00     0.034 C 
BRANCH  23  24
HETATM   24  C24         0      11.882   2.858   0.327  1.00  0.00    -0.086 C 
HETATM   25  C26         0      12.576   2.193   1.247  1.00  0.00     0.014 C 
BRANCH  24  26
HETATM   26  C25         0      12.635   3.492  -0.833  1.00  0.00     0.005 C 
HETATM   27  C27         0      12.047   3.051  -2.191  1.00  0.00     0.014 C 
HETATM   28  C28         0      12.487   5.024  -0.771  1.00  0.00     0.014 C 
ENDBRANCH  24  26
ENDBRANCH  23  24
ENDBRANCH  22  23
ENDBRANCH  20  22
ENDBRANCH   5  20
TORSDOF 5
