REMARK  4 active torsions:
REMARK  status: ('A' for Active; 'I' for Inactive)
REMARK    1  A    between atoms: O1_1  and  C5_5 
REMARK    2  A    between atoms: O2_2  and  C10_10 
REMARK    3  A    between atoms: C3_3  and  C4_4 
REMARK    4  A    between atoms: C3_3  and  C5_5 
ROOT
HETATM    1  O1          0      -2.726  -0.996   0.908  1.00  0.00    -0.401 OA
HETATM    2  H19         0      -3.267  -1.129   1.725  1.00  0.00     0.209 HD
ENDROOT
BRANCH   1   3
HETATM    3  C5          0      -2.905   0.339   0.432  1.00  0.00     0.168 C 
BRANCH   3   4
HETATM    4  C3          0      -2.063   0.549  -0.838  1.00  0.00     0.064 C 
BRANCH   4   5
HETATM    5  C4          0      -0.627   0.322  -0.488  1.00  0.00    -0.056 A 
HETATM    6  C7          0      -0.010  -0.978  -0.747  1.00  0.00     0.010 A 
HETATM    7  C9          0       1.267  -1.182  -0.436  1.00  0.00     0.037 A 
HETATM    8  C10         0       2.055  -0.104   0.165  1.00  0.00     0.065 A 
HETATM    9  C8          0       1.493   1.080   0.400  1.00  0.00     0.037 A 
HETATM   10  C6          0       0.089   1.303   0.058  1.00  0.00     0.010 A 
BRANCH   8  11
HETATM   11  O2          0       3.389  -0.317   0.490  1.00  0.00    -0.361 OA
HETATM   12  H20         0       3.767   0.509   0.884  1.00  0.00     0.217 HD
ENDBRANCH   8  11
ENDBRANCH   4   5
ENDBRANCH   3   4
ENDBRANCH   1   3
TORSDOF 4
